\documentclass[a4paper,12pt]{article}
%\documentclass[a4paper,12pt]{scrartcl}

\author{Rodrigo Rojas, PhD \\
        Mauricio Zambrano-Bigiarini, PhD}
%\pdfbookmark[0]{Titlepage}{title} % Sets a PDF bookmark for the title page

\title{Tutorial for interfacing \emph{hydroPSO} with SWAT-2005 and MODFLOW-2005}

\date{\today}

%\subtitle{for hydroPSO >= 0.2-0}

%\VignetteIndexEntry{Tutorial for interfacing \emph{hydroPSO} with SWAT-2005 and MODFLOW-2005}
%\VignetteKeyword{}
%\VignetteKeyword{}

\usepackage{Sweave}
\usepackage{natbib}
\usepackage{doipubmed}
\usepackage{url}
\usepackage{graphicx}
\usepackage{graphics}
\usepackage{booktabs}
\usepackage{fancyvrb}
\usepackage{multicol}
\usepackage{multirow}
\usepackage{amssymb,amsmath}
\usepackage[ruled]{algorithm}
\usepackage[noend]{algorithmic}
\usepackage{threeparttable}
\usepackage{rotating}
%%\usepackage[hidelinks]{hyperref}
\usepackage[colorlinks=true,linkcolor=black,citecolor=blue,urlcolor=blue]{hyperref}
\usepackage{setspace}

\begin{document}

% The following 6 lines are necessary to avoid the following error: "Error in driver$finish(drobj) :  the output file 'MyDocument.tex' has disappeared". From: http://r.789695.n4.nabble.com/Sweave-problem-after-R-update-version-td4566044.html
\SweaveOpts{...}
<<Rsetup, echo=FALSE>>=
CUR_WD=getwd()
setwd(".")
options(width=80)
@ 

\maketitle

\clearpage

\tableofcontents

\clearpage

\addcontentsline{toc}{section}{List of Tables}
\listoftables

\clearpage

\addcontentsline{toc}{section}{List of Figures}
\listoffigures

\clearpage

\section*{Preface\label{sec:preface}}
\addcontentsline{toc}{section}{Preface}
The next tutorial shows how to use the \emph{hydroPSO} R package to calibrate different model codes. Two of the main properties of \emph{hydroPSO} are the independence from the model to be calibrated and the simple interfacing between the model code and the calibration-engine, i.e. \emph{hydroPSO}. These two properties are illustrated through the calibration of real-world case studies, which should be the starting point for a user planning to implement \emph{hydroPSO} for her/his own model calibration exercise.

We show here how to use \emph{hydroPSO} to calibrate a semi-distributed hydrological model and a steady-state groundwater flow model. The first is fully implemented in SWAT-2005 \citep{neitsch+al2005a} whereas the second is implemented in MODFLOW-2005 (MF2005) \citep{mf2005}. Both model codes are widely-used programs to solve surface water and groundwater flow problems. At the same time, for illustrative purposes we use the program ZONEBUDGET (ZB) \citep{zonebudget} to obtain groundwater flows at particular aquifer cross sections. The purpose of including ZB is to illustrate how to interface \emph{hydroPSO} with a sequential modelling application. In this case, however, only MF2005 is calibrated against observed data and including other observations can be easily implemented in a similar way as described here. 

Both programs SWAT-2005 and MF2005/ZB are public domain and accessible from \url{http://swatmodel.tamu.edu/software/swat-model/} and \url{http://water.usgs.gov/nrp/gwsoftware/modflow.html}, respectively. For simplicity, we must assume some basic knowledge from part of the reader about the file naming convention used in SWAT-2005, MF2005/ZB, as well as the setting up of the internal options for these programs.

As an integral part of this tutorial, the reader can download from \url{http://www.rforge.net/hydroPSO/} two files \href{http://www.rforge.net/hydroPSO/files/MF2005.zip}{MF2005.zip} and \href{http://www.rforge.net/hydroPSO/files/SWAT2005.zip}{SWAT2005.zip} including all the required files to run SWAT-2005 and MF2005, sample R scripts to interface \emph{hydroPSO} with SWAT-2005 and MF2005, as well as several auxiliary files.

For assistance, bugs report, comments, and suggestions please contact the authors of the \emph{hydroPSO} package at:
\href{mailto:mzb.devel@gmail.com}{mzb.devel@gmail.com} and/or \href{mailto:Rodrigo.RojasMujica@gmail.com}{Rodrigo.RojasMujica@gmail.com}.

\clearpage

\section{Introduction\label{sec:intro}}
\emph{hydroPSO} is an R package implementing the Particle Swarm Optimisation (PSO) algorithm \citep{kennedyeberhart1995,eberhartkennedy1995}. PSO is a population-based stochastic optimisation technique inspired by social behaviour of bird flocking, which shares few similarities with other evolutionary optimisation techniques such as Genetic Algorithms (GA) \citep{poli+al2007}. In PSO, however, the solution-space is explored on the basis of individual and neighbourhood best-known ``particle positions'' with no presence of evolution operators (e.g. mutation or crossover) as in GA. PSO has recently received a surge of attention in literature given its flexibility, simplicity of implementation (programming), low memory and computational requirements, low number of adjustable parameters, and efficiency \citep[see, e.g.,][]{eberhartshi1998,shieberhart1999,eberhartshi2001,poli+al2007}.

The main motivations for developing the \emph{hydroPSO} package are: 
\begin{enumerate} 
\item bring this powerful optimisation/calibration technique to the attention of practitioners and scientists working on environmental modelling,  
\item provide a model-independent software package allowing the user to calibrate (different) environmental models without having to invest considerable programming efforts in customizing the calibration engine to the environmental model, and
\item allow the PSO research community to explore alternative advancements and configurations of the standard PSO using a versatile single-package software.
\end{enumerate}

Unlike other R packages recently developed for similar purposes (see e.g. \emph{hydromad}, \citealt{andrews+al2011}, \emph{R-SWAT-FME}, \citealt{wuliu2012}, and \emph{pso}, \citealt{psoptim2012}), \emph{hydroPSO} is not restricted to a limited number of hard-coded models, can be interfaced with any model with a relatively low programming effort, is fully compatible with calibration tools employing PEST-like template files \citep[see][]{pest2010}, and is easily parallelizable.

\emph{hydroPSO} is also capable of performing sensitivity analysis using the Latin Hypercube One-factor-At-a-Time (LH-OAT) method \citep[see][]{vangriensven+al2006} and provides detailed information about the evolution of PSO's performance. In addition, advanced plotting capabilities and a complete family of built-in functions contained in the R language \citep{R2011} are available to visualize and summarize the calibration results, respectively. At the same time, \emph{hydroPSO} features a suite of controlling options and PSO variants for fine-tuning and improving the performance of PSO, thus, allowing the user to adapt the calibration/optimisation engine to different modelling problems. For a full description of the PSO enhancements included in the \emph{hydroPSO} package the reader is referred to Section~\ref{sec:pso}.

In principle, \emph{hydroPSO} only needs to know \emph{which} model parameters need to be calibrated, \emph{where} they need to be written, and \emph{from where} and \emph{how} to read the main model output. Then, it will take control of the model(s) to be calibrated until either a maximum number of iterations or an error tolerance in the objective function are reached: these two being problem-specific and user-defined. The basic interaction between \emph{hydroPSO} and the model to be calibrated is shown in Figure~\ref{fig:f01vign}. For models with numerous input and output files or cascading models (i.e. serial modelling applications), several I/O functions can be combined to interface \emph{hydroPSO} and the model.

\begin{figure}
	\centering
	\noindent\includegraphics[width=0.5\textwidth]{./figures/f01vign.pdf} 
	\caption{Flow chart of the implementation/interaction between \emph{hydroPSO} and the model code to be calibrated. Dashed-line boxes represent basic I/O functions to read/write model files \citep[After][]{hydroPSO2012}.}
	\label{fig:f01vign}
\end{figure}

In this tutorial we show first how to interface \emph{hydroPSO} with SWAT-2005 \citep{neitsch+al2005a} to calibrate a semi-distributed hydrological model for the Ega River basin in Spain. That section illustrates three main points: 1) basic interfacing between \emph{hydroPSO} and the model through the definition of ASCII files \emph{ParamRanges.txt} and \emph{ParamFiles.txt}, 2) advanced sensitivity analysis using LH-OAT and the use of \emph{hydroPSO} pre-defined goodness-of-fit measures as objective functions, and 3) the set up for calibrating a model output variable in time and static in space (transient application). Second, we show how to interface \emph{hydroPSO} with MF2005 \citep{mf2005} to calibrate a groundwater flow model for the regional aquifer of the Pampa del Tamarugal basin in Chile. That section, in turn, illustrates: 1) advanced interfacing between \emph{hydroPSO} and the model through the implementation of user-defined I/O wrapper functions written in R, 2) how to define/use a customized goodness-of-fit measure as objective function, and 3) how to set up \emph{hydroPSO} for a model output fixed in time but variable in space (steady-state application). Details about both applications are summarized in Table~\ref{tab:table1}.

%%%%%%% TABLE1 
\begin{table}
 \caption{Distinctive features of the SWAT-2005 and MF2005 applications presented in this tutorial.}
 \label{tab:table1}
 \centering
 \resizebox{\textwidth}{!}{
\begin{tabular}{l l l}
\toprule
Application feature              & SWAT-2005                                 & MODFLOW-2005 \\
\midrule
OS                               & GNU/Linux                                 & Windows 7 \\
Type of model                    & Semi-distributed, surface hydrology       & Fully-distributed, groundwater \\
\emph{hydroPSO}-model interface  & Basic through ASCII files                 & Advanced through user-defined R functions \\
Executable model code            & Single file (swat2005.out)                & Sequential batch file (*.bat) \\
Simulated model outputs          & Transient (1962-1970), single observation & Steady-state (1960), multiple observations \\
Goodness-of-fit measure          & Pre-defined Nash-Sutcliffe efficiency     & User-defined Gaussian likelihood \\
\bottomrule
\end{tabular}
}
\end{table}
%%% END TABLE1 

We therefore believe that this tutorial cover two standard-problems commonly found by the modelling community. We must note, however, that these tutorials deal with surface water and groundwater modelling applications as these two are the authors' areas of expertise. However, based on the flexibility of the \emph{hydroPSO} package and the benefits added by programming it in R, we believe this package can be implemented to a wider range of environmental models requiring some form of parameter estimation. To the date of writing this tutorial, we have provided support to users calibrating models such as: SWAT-2005, MF2005, LISFLOOD, AGNPS, HBV-96, and SWIM.

In Section~\ref{sec:pso} we present a brief description of PSO, including the main algorithm, discussion on topologies and PSO variants and fine-tuning options available in \emph{hydroPSO}. Section~\ref{sec:package} briefly describes the main package functions as well as the basic requirements to interface \emph{hydroPSO} with a given model code. An introductory application of \emph{hydroPSO} to optimise test functions commonly used to assess the performance of optimisation algorithms is described in Section~\ref{sec:application}. The procedure to interface \emph{hydroPSO} with SWAT-2005 and MF2005 as well as the corresponding calibration results, are reported in Sections~\ref{sec:swat2005} and~\ref{sec:mf2005}, respectively.

\clearpage

\section{Particle Swarm Optimisation (PSO)\label{sec:pso}}
\subsection{Canonical PSO Algorithm\label{sec:psoalg}}
Particle Swarm Optimisation (PSO) is a population-based search algorithm developed by \citet{kennedyeberhart1995} and \citet{eberhartkennedy1995}. A feature distinguishing PSO from evolutionary algorithms is the lack of genetic operators, instead each individual of the population, termed \textit{particles} in PSO terminology, adjusts its \textit{flying trajectory} around the multi-dimensional search-space according to its own flying experience (\textit{local search}) and the one of all particles in the swarm (\textit{global search}) \citep{eberhartshi1998}.

Considering a $D$-dimensional search-space, \textit{position} and \textit{velocity} for the $i$-th particle are represented by $\vec{X}_i=x_{i1},x_{i2},\ldots,x_{iD}$ and $\vec{V}_i=v_{i1},v_{i2},\ldots,v_{iD}$, respectively. The performance of each particle is assessed through a problem-specific ``goodness-of-fit'' measure, which is the basis for calculating $\vec{X}_i$, thus, reflecting the quality of the particle's position. The best-known position of the $i$-th particle (known as \textit{personal best}) is represented by $\vec{P}_i=p_{i1},p_{i2},\ldots, p_{iD}$, whereas the best-known position for the whole swarm (known as \textit{local best}) is represented by $\vec{G}=g_{1},g_{2},\ldots, g_{D}$. Velocity and position of the $i$-th particle are updated according to the following equations,
  
\begin{equation}\label{eq:update1}
\vec{V}_{i}^{t+1} = \omega \vec{V}_{i}^t + c_1 \vec{U}_1^t \otimes (\vec{P}_{i}^t-\vec{X}_{i}^t) + c_2 \vec{U}_2^t \otimes (\vec{G}^t-\vec{X}_{i}^t)
\end{equation} 

\noindent or \citep{clerckennedy2002},

\begin{equation}\label{eq:update2}
\vec{V}_{i}^{t+1} = \chi \left[ \vec{V}_{i}^t + c_1 \vec{U}_1^t \otimes (\vec{P}_{i}^t-\vec{X}_{i}^t) + c_2 \vec{U}_2^t \otimes (\vec{G}^t-\vec{X}_{i}^t)\right]
\end{equation} 
  
\begin{equation}\label{eq:PositionUpdate}
\vec{X}_{i}^{t+1} = \vec{X}_{i}^t + \vec{V}_{i}^{t+1} 
\end{equation} 
  
\noindent where $i=1,2,\ldots,N$, with $N$ equal to the swarm size, and $t=1,2,\ldots,T$, with $T$ equal to the maximum number of iterations. $\omega$ is defined as the \emph{inertia weight}, which was introduced in early PSO variants to avoid particles flying around their best-known position without converging to it. $c_1$ and $c_2$ are the \emph{cognitive} and \emph{social} acceleration coefficients, which control the influence of the \emph{personal} and the \emph{local best}. These two parameters influence the trade-off between the \emph{local exploitation} and the \emph{global exploration} search abilities of the algorithm \citep{shieberhart1998b}. $\vec{U}_1$ and $\vec{U}_2$ are independent and uniformly distributed $D$-dimensional random vectors in the range $[0,1]$ used to maintain the ``diversity'' of the population (note that $\otimes$ denotes element-wise vector multiplication). $\chi$ is the constriction factor defined by

\begin{equation}\label{eq:clerccoeff}
\chi = \frac{2\kappa}{|2-\varphi-\sqrt{\varphi^{2}-4\varphi}|}
\end{equation} 

\noindent where $\kappa \in [0,1]$ and $\varphi = c_1 + c_2 > 4$, with typical values of $\kappa=1$, $c_1=c_2=2.05$ and $\varphi=4.1$. It should be noted that equations~\ref{eq:update1} and~\ref{eq:update2} are mathematically equivalent for appropriate values of the coefficients $\omega$, $c_1$, and $c_2$.

The inclusion of the inertia weight $(\omega)$ or the constriction factor $(\chi)$ in equations~\ref{eq:update1} or~\ref{eq:update2} aims to prevent \emph{swarm explosion}, i.e. an uncontrolled increase of the magnitude of velocities (particle displacement) \citep{poli+al2007}. In addition to this, \citet{eberhartshi2000} suggest constraining particle velocity to within the range $[-\vec{V}^{max},\vec{V}^{max}]$ with $\vec{V}^{max}=\vec{X}^{max}$, and $\vec{X}^{max}$ as the limits of the search space. In case this constraint is violated, the $d$-dimensional component of the velocity for the $i$-th particle is set directly to the closest velocity bound as follows

\begin{equation}\label{eq:PSOvmax}
v_{id} =  \left\{
  \begin{array}{r l r l}
     v^{max}_{d}  & , v_{id} > &  v^{max}_{d}  & \\ 
    -v^{max}_{d}  & , v_{id} < & -v^{max}_{d}  &
  \end{array} \right.
\end{equation}

Equations~\ref{eq:update1} to~\ref{eq:PSOvmax} can be considered as the canonical PSO algorithm \citep[see][]{kennedy2006}, which is summarised as follows

\begin{algorithm}[H]
\caption{Canonical PSO algorithm.}
 \begin{algorithmic}[1]
  \FOR[for each particle in the swarm]{$i=1$ to $N$}
   \STATE Initialize particles' positions $(\vec{X}_i)$ and velocities $(\vec{V}_i)$
   \STATE Initialize personal best, $\vec{P}_i$, and local best, $\vec{G}$
  \ENDFOR
  \REPEAT
   \FOR{$i=1$ to $N$}
    \STATE Pick random vectors $\vec{U}_1$ and $\vec{U}_2$
    \STATE Update particle's velocity using equations~\ref{eq:update1} or~\ref{eq:update2}
    \STATE Update particle's position using equation~\ref{eq:PositionUpdate}
     \IF[minimization of $f$]{$f(\vec{X}_i) < f(\vec{P}_i)$}
      \STATE Update particle's best-known position $\vec{P}_i=\vec{X}_i$
       \IF[minimization of $f$]{$f(\vec{P}_i) < f(\vec{G})$}
        \STATE Update the neighbourhood's best-known position $\vec{G}=\vec{P}_i$
       \ENDIF
     \ENDIF
   \ENDFOR
  \UNTIL[nr. of iterations $(T)$ or tolerance error is met]
 \end{algorithmic}
\end{algorithm}

\subsection{Topologies\label{ch:topologiesPSO}}
Particles in the swarm interact by defining a common set of links. These links control the exchange of information, i.e. they inform each particle of the best-known position of neighbouring particles, and are defined as the \emph{swarm topology}. The set of particles ``informing'' the $i$-th particle at the $t$-th iteration is termed the particle's \emph{neighbourhood}, and includes the particle itself as a member \citep{clerc2007}.

A vast number of swarm topologies has been investigated and reviewed in the literature \citep[see, e.g.,][]{kennedy1999, kennedymendes2002,kennedymendes2003,mendes2004,poli+al2007}. Two of the most common correspond to the so-called \emph{gbest} and \emph{lbest}. In the \emph{gbest} topology all particles are inter-connected and, thus, the best-known particle influences all the remaining particles in the swarm. This topology is generally recognised to have a fast convergence but is highly vulnerable to sub-optimal solutions and premature convergence \citep[see, e.g.,][]{mendes2004,clerc2006,poli+al2007}. In the \emph{lbest} topology, each particle is connected to two immediate neighbours and, thus, exchange of information with the best-known particle is restricted only to the particle's immediate neighbourhood. In general, the particle itself is included as a member of its neighbourhood \citep{mendes2004,clerc2006}. The \emph{lbest} topology shows the advantage of allowing parallel searches in different regions of the search-space \citep{poli+al2007}, which results in a more thorough search strategy. Accordingly, \emph{lbest} shows a slower convergence and less sensitivity to sub-optimal solutions compared to \emph{gbest}.

\citet{kennedymendes2002} investigate generalisations of the \emph{lbest} topology. One of their main findings is the relative superiority of the \emph{von Neumann} structured neighbourhood, i.e. four neighbours. This topology is more densely connected than \emph{lbest} but less densely connected than \emph{gbest}, thus, it shows some parallelism with \emph{lbest} but benefits from a larger neighbourhood \citep{poli+al2007}.

Finally, \citet{clerc2006} propose the so-called \emph{random} topology. In this topology, each particle informs $k$ particles (and itself) chosen randomly, with the parameter $k$ usually set to 3 \citep{clerc2012}. This results in each particle informing at least one (itself) and at most $k+1$ (including itself) particles, and being informed by any number of particles between 1 and $N$. The \emph{random} topology can be considered as a special case of the \emph{lbest} topology where particles have $k$ \emph{informants} most of the time and the ``connections'' between particles randomly change when the global optimum shows no improvement. The \emph{random} topology is used in the ``Standard PSO 2011'' algorithm, which has become the benchmark in recent years.

\subsection{PSO Variants and Fine-Tuning Options\label{sec:PSOvariants}}
Notwithstanding the inclusion of $V_{max}$ and $\omega$ aimed at overcoming premature convergence to sub-optimal solutions, improvements to the canonical PSO are still an active area of research \citep{poli+al2007}. To date, a vast collection of enhancements/variants has been suggested in the literature \citep[see, e.g.,][]{clerc2006,kennedy2006,vandenberghengelbrecht2006,zhao2006,poli+al2007,poli2008,chenchi2010}, resulting in a large group of algorithms, which we cannot fully review or implement into a single piece of software.

This section describes the PSO variants and state-of-the-art enhancements implemented in the calibration engine of \emph{hydroPSO}, which are further summarised in Table~\ref{tab:table2}.

\subsubsection{PSO Variants}
In equations~\ref{eq:update1} and~\ref{eq:update2} only two effective sources of ``influence`` are considered for updating the particles' velocities, namely, the position of the particle's personal best, $\vec{P}$, and the position of the local best, $\vec{G}$. \citet{mendes+al2004} propose a PSO variant, which they refer to as Fully Informed Particle Swarm (FIPS), where information drawn from all the particles in the neighbourhood (i.e. not only the best one) contributes to adjusting the particle's velocity. FIPS is implemented as follows,

\begin{equation}\label{eq:FIPS}
\vec{V}_{i}^{t+1} = \chi \left[ \vec{V}_{i}^t + \frac{1}{K_{i}} \sum_{n=1}^{K_{i}} \vec{U}_1^t(0,\varphi) \otimes (\vec{P}_{nbr_{n}}^t-\vec{X}_{i}^t) \right]
\end{equation} 

\noindent where $K_i$ is the number of neighbours for the $i$-th particle, and $\vec{P}_{nbr_{n}}$ is the position of the particle's $n$-th neighbour. Additionally, \citet{mendes+al2004} propose a second PSO variant, which they refer to as weighted FIPS (wFIPS). In wFIPS the contribution of each neighbour to the adjustment of a particle's velocity is weighted by the corresponding goodness-of-fit of its personal best. Performance of both FIPS and wFIPS is highly sensitive to the topology employed \citep{poli+al2007}, however, for topologies with few neighbours they outperform the canonical PSO algorithm \citep{mendes+al2004,kennedy2006}.

A third PSO variant implemented in \emph{hydroPSO} corresponds to the Improved Particle Swarm Optimisation (IPSO) by \citet{zhao2006}. In IPSO the term representing the social influence (i.e., $\vec{G}^t-\vec{X}_{i}^t$, in equations~\ref{eq:update1} or~\ref{eq:update2}) is enhanced by using information drawn from a subset containing the $n_{gb}$ best performing particles in the neighbourhood. According to \citet{zhao2006} this variant follows the analogy where a group of leaders, i.e. the best performing particles for an iteration, could influence positively better decisions for society (swarm) compared to a case when a single leader is followed. IPSO is implemented as follows 

\begin{equation}\label{eq:IPSO}
\vec{V}_{i}^{t+1} = \omega\vec{V}_{i}^t + c_1 \vec{U}_1^t \otimes (\vec{P}_{i}^t-\vec{X}_{i}^t) + \sum_{j=1}^{n_{gb}} c_{2,j} \vec{U}_{2,j}^t \otimes (\vec{G}_{j}^t-\vec{X}_{i}^t)
\end{equation} 

\noindent where coefficient $c_{2,j}$ is defined by

\begin{equation}
c_{2,j}=c_2 \hat{g}_{j}
\end{equation}

\noindent where $\hat{g}_{j}$ is a weighting factor based on the values of the goodness-of-fit for the $n_{gb}$ particles. 

\subsubsection{Fine-Tuning Options\label{ch:finetuneoptions}}
In this section several options used to tailor the calibration engine to specific user needs are described. We should note here that the effectiveness of these options has generally been tested against the ``canonical'' PSO algorithm.

\begin{enumerate}
\item PSO Parameters \\
The PSO algorithm includes a few parameters that have to be carefully selected in order to avoid swarm explosion and to ensure proper convergence of the algorithm. These parameters include: a) inertia weight $(\omega)$, b) Clerc's constriction factor $(\chi)$, c) the cognitive coefficient $(c_1)$, and d) the social coefficient $(c_2)$.

Several definitions for the \emph{inertia weight} ($\omega$) have been extensively investigated and, hence, will not be further developed here. \citet{shieberhart1998b} initially propose a linearly decreasing variation for $\omega$. This strategy forces an extensive exploration of the search-space at initial iterations, which gradually shifts to a more dissipative (``exploitative'') search at later iterations \citep{poli+al2007}. Alternative $\omega$ definitions implemented in \emph{hydroPSO} include: a) linear \citep{shieberhart1998b}, b) non-linear \citep{chatterjeesiarry2006}, c) adaptive factor \citep{liu+al2005}, d) global-local best ratio \citep{arumugamrao2008}, and e) fully random \citep{eberhartshi2001}. These alternative definitions for $\omega$ allow the modeller to fine-tune the ``exploitation/exploration'' properties of the algorithm for different calibration problems.

Depending on the nature of the optimisation/calibration problem, the definition of the acceleration coefficients $c_1$ and $c_2$ may have a drastic impact on the algorithm's performance. \citet{ratnaweera+al2004} suggest that time-varying acceleration coefficients (TVAC) may reduce premature convergence at the first stages of the search and improve convergence at later iterations. For example, a large value of $c_1$ and a small value of $c_2$ at initial iterations allow the particles to ``fly'' around the search-space instead of moving towards their personal best. For later iterations, in turn, a small value of $c_1$ and a large value of $c_2$ allow the particles to converge to the global attraction zone. Based on this, linear, non-linear, and global-local best ratio (only for $c_1$) TVAC are implemented in \emph{hydroPSO} to fine-tune the coefficients $c_1$ and $c_2$.

\item Boundary Conditions \\
In many optimisation/calibration problems it is a good practice to confine particle position to physically meaningful parameter ranges. In \emph{hydroPSO} this is done by using a $D$-dimensional vector defining the range of the search-space $(\Psi=\{(\psi_{1}^{min},\psi_{1}^{max}),(\psi_{2}^{min},\psi_{2}^{max}),\ldots,(\psi_{D}^{min},\psi_{D}^{max})\})$. The behaviour of the particles at these boundaries may influence the exploration of the search-space \citep{robinsonrahmatsamii2004}. Generally, four types of boundary condition may be imposed on a particle reaching the boundary of the search-space: a) \emph{absorbing}, where the particle's position is set to the boundary value and the velocity is set to zero; b) \emph{invisible}, where the particle is allowed to ``fly'' beyond the boundaries without limiting either its position or velocity, but its goodness-of-fit is not evaluated, c) \emph{reflecting}, where the sign of the velocity in the overshot dimension is changed and the particle is reflected back to the search-space; and d) \emph{damping}, where part (1-$f$) of the velocity is absorbed by the boundary and part ($f$) is reflected back, with $f$ as a random damping factor in [0,1] \citep[see][]{robinsonrahmatsamii2004,huangmohan2005}.

\item Regrouping Strategy \\
In the case of premature convergence (i.e. when the proposed solution approximates a local rather than a global optimum) or to validate the global attraction zone at final iterations, a suitable mechanism allowing particles to escape from sub-optimal solutions is required. \citet{eversghalia2009} propose a strategy that avoids stagnation of particles by automatically triggering swarm regrouping (see Table~\ref{tab:table2} for details). At each iteration the \emph{swarm radius} ($\delta^t$) is computed as the maximum Euclidean distance between the position of the swarm optimum ($\vec{G}$) and any given particle ($\vec{X}_i$). Then, regrouping is triggered when the \emph{normalized swarm radius} ($\delta^t_{norm}$) is less than a user-defined \emph{stagnation threshold} ($\epsilon$). The swarm is regrouped around the swarm optimum by using an updated range ($range_{d}(\Psi^{r})$ where $r$ is the \emph{swarm regrouping index}) calculated as the minimum between (i) the original range of the search-space on dimension $d$, and (ii) the product of the \emph{regrouping factor} ($\rho$) with the maximum distance along dimension $d$ between any particle and the swarm optimum. This regrouping method defines a reduced search-space ($\Psi^{r}$), which is small enough for an efficient search and large enough to allow particles to escape from sub-optimal solutions.  

\item Other Options \\
In \emph{hydroPSO} sampling of initial particle position $(\vec{X}_{ini})$ and velocity $(\vec{V}_{ini})$ might be improved by including a Latin Hypercube sampling \citep{mckay1979} over the full $D$-dimensional search-space in order to ensure a fair initialisation of the $D$ exploration. 

To enhance a faster propagation of the best solutions found throughout the swarm, \citet{mussi+al2009} discuss two strategies for updating the particle and local best position. In the \emph{synchronous} strategy the local best is updated only after computing and updating the position and personal best of all particles in the swarm. In the \emph{asynchronous} strategy, the local best is updated immediately after each particle's position is updated. 

For later stage iterations, oscillation of the particles around the local best may be restricted by using a time-varying $\vec{V}_{max}$. This reduces the search-space for latter stage iterations and, thus, complements the effect of ($\omega$). This is suggested by the authors of \emph{hydroPSO} following \citet{chatterjeesiarry2006}.

Finally, \emph{hydroPSO} offers parallel capabilities to speed up the optimization process, which are easily configured.
\end{enumerate}
